! "Comprehensive Reaction Mechanism for n-Butanol Pyrolysis and Combustion"
! M.R. Harper (a), K.M. Van Geem (b), G.B. Marin (b), W.H. Green (a)
! (a) Department of Chemical Engineering, Massachusetts Institute of Technology
! (b) Laboratory for Chemical Technology, Universiteit Gent, Belgium
! Submitted to Combust. Flame

ELEMENTS
O  H  C  N  AR
END

SPECIES
H2               CO2              CO               CH4              C2H4
C2H2             C2H6             C3H6             C3H8             aC3H4
pC3H4            CH3OH            C4H8-1           C4H6-13          nC4H10
N2               C2H5OH           benzene          nC4H10O          C2H3
CH2CO            C2H4O            CH3CHO           H2O              nC4H8O
C4H7OJ(8)        C4H7OJ(12)       C4H7OJ(13)       C4H7OJ(16)       CH2CHO
C3H6O-enol2      C3H5O-enol2      CH2O             C4H8O-enol       C4H8O-enol2
C4H8O-enol3      C4H9O-1          C4H9O-2          C4H9O-3          C4H9O-4
C4H9O-5          C3H7O-N1         C3H5OJ(8)        C3H5OJ(12)       C3H5OJ(13)
C3H6O            C2H5             H                O                O2      
OH               HO2              H2O2             C                CH      
CH2              CH2(S)           CH3              HCO              CH2OH
CH3O             C2H              HCCO             HCCOH            AR
C2O              HOC2H4O2         C3H2             pC3H3            aC3H5
pC3H5            sC3H5            C3H7-1           C3H7-2           C2H5O-1
C2H5O-2          C2H5O-3          C3H4O-enone      C3H4O            C4H7O-13
C4H2             iC4H3            nC4H3            C4H4             C4H5-113
nC4H5            iC4H5            C4H6-1           C4H6-12          C4H7-14
C4H7-11          C4H7-12          C4H7-24          C4H9-1           C4H9-2
C2H3O-1          C2H3O-2          C6H4             C6H5             C4H6-2

C4H7-22          CH3CO            C6H10            C6H9_1_2_5       C6H9_CYC_1_3
C6H8_CYC_1_4     C6H7_CYC_1_2     C6H10_CYC        C7H9             C8H8
C8H9             C7H8             C3H7O2           CH2CH2CH2OOH     aC3H5O2
nSPC(301)        nSPC(351)        nSPC(385)        nSPC(447)        nSPC(543)
nSPC(801)        nSPC(879)        nSPC(1064)       nSPC(102)        C4H8-2
C3H3O-enone      FULVENE          C6H5O            C5H5             C6H5OH
cyC5H6           C5H5CH3_1        C5H5CH3_2        C5H5CH3_3        C8H6
C6H5CH2          C6H5CCH2         C5H4CH3          C5H5CH2-1        C5H5CH2-2
C5H5CH2-3        ME2CYBE          c5h4chchch2      C#CCCC#C         C*C*CC*C*C
CH3CCCH2         C4H4-123         C5H10_1          C5H9_1_4         C5H8_CYC_1
C5H9_CYC         C5H7_CYC_1_2     C4H7O_1_2        sBuOH            CH3C[OH]C2H5
CH3CH[OH]CHCH3   CH3CH[O]C2H5     CH2CH[OH]C2H5    CH3CH[OH]CH2CH2  CH3CH[OH]CH2
HOCHC2H5         H2CCCH3[OH]      CH3CH-O-CH3      CH3C[OH]CH3      acetone
C2H5CHCHCH2      CH2C[OH]CH2      CH2C[O]CH3       CH3-O-C(CH3)2    C3H6O-enol
MEK              sC4H8O           C4H6O(717)       cH2C[O]C2H5      CH3C[O]cHCH3
CH3C[O]CH2cH2    MEKenol2         CH2C[OH]cHCH3    CH2C[OH]CH2cH2   cHC[OH]C2H5
MEKenol          CH3CHcOH         CH3C[OH]cH       CH3C[OH]cCH3     
CH3C[OH]CHcH2    cH2CH[OH]C2H3    CH3CH[OH]cCH2    CH3CH[OH]CHcH    CH3CH[o]C2H3

!!!!!!!!!!!!!!!!!!!!!!!!!!!!!!!!!!!!!!!!!!!!!!!!!!!!!!!!!!!!!!!!!!!!!!!!!!!!!!!
! New work for sec- and tert-butanol paper:                                   !
!    "Accurate Reaction Networks for Alternative Fuels: Butanol Isomers"      !
!    K.M. Van Geem, M.R. Harper, S.P. Pyl, G.B. Marin, W.H. Green             !
!    To be submitted to Industrial & Engineering Chemical Research            !
!       for the ISCRE-21 conference                                           !
!!!!!!!!!!!!!!!!!!!!!!!!!!!!!!!!!!!!!!!!!!!!!!!!!!!!!!!!!!!!!!!!!!!!!!!!!!!!!!!

tBuOH            iC4H8            HOC[CH2][CH3]2   OC[CH3]3         iC4H7
HCC[CH3]2        tC4H9            iC4H9            iC4H10

sSPC(116)        sSPC(46)         sSPC(56)         sSPC(752)        sSPC(332)
sSPC(1013)       sSPC(1072)       sSPC(1151)       sSPC(1356)       sSPC(1697)
sSPC(1735)       sSPC(1909)       sSPC(3071)       sSPC(3121)       sSPC(2810)
sSPC(1474)       sSPC(1590)       tSPC(54)         tSPC(77)         tSPC(122)
tSPC(157)        tSPC(213)        tSPC(97)         tSPC(439)        tSPC(343)
tSPC(346)        tSPC(878)        H2CCCO           tSPC(1286)       tSPC(1416)
tSPC(1553)       C8H14            tSPC(3683)       C4H8O2(62)       C4H7OJ(79)
tSPC(110)        C4H6O(105)       C5H10_iso        C5H9J(5)         C5H9J(7)
C5H9J(8)         C5H9J(9)         C5H11J(10)       C5H11J(11)

C5H8(95)         SPC(482)         SPC(483)         C5H7J(504)       SPC(493)
SPC(494)         SPC(495)         SPC(496)         SPC(498)         SPC(499)
C6H7J(511)       C6H7J(512)       C6H7J(505)       C6H7J(506)       C8H13J(41)
C8H15J(44)       SPC(425)         SPC(426)         C7H10(454)


END

THERMO ALL
   300.000  1000.000  5000.000
! The following NASA-7 polynomials are from the GRI-Mech 3.0 mechanism, unless otherwise noted
! The "Burcat" reference corresponds to:
!    Third Millennium Thermodynamic Database for Combustion and Air-Pollution Use
!    with updates from  Active Thermochemical Tables.
!    Elke Goos, Alexander Burcat, and Branko Ruscic
!    http://garfield.chem.elte.hu/Burcat/BURCAT.THR

! GRI-Mech Version 3.0 Thermodynamics released 7/30/99
! NASA Polynomial format for CHEMKIN-II
! see README file for disclaimer
O                 L 1/90O   1               G   200.000  3500.000  1000.000    1
 2.56942078E+00-8.59741137E-05 4.19484589E-08-1.00177799E-11 1.22833691E-15    2
 2.92175791E+04 4.78433864E+00 3.16826710E+00-3.27931884E-03 6.64306396E-06    3
-6.12806624E-09 2.11265971E-12 2.91222592E+04 2.05193346E+00                   4
O2                TPIS89O   2               G   200.000  3500.000  1000.000    1
 3.28253784E+00 1.48308754E-03-7.57966669E-07 2.09470555E-10-2.16717794E-14    2
-1.08845772E+03 5.45323129E+00 3.78245636E+00-2.99673416E-03 9.84730201E-06    3
-9.68129509E-09 3.24372837E-12-1.06394356E+03 3.65767573E+00                   4
H                 L 7/88H   1               G   200.000  3500.000  1000.000    1
 2.50000001E+00-2.30842973E-11 1.61561948E-14-4.73515235E-18 4.98197357E-22    2
 2.54736599E+04-4.46682914E-01 2.50000000E+00 7.05332819E-13-1.99591964E-15    3
 2.30081632E-18-9.27732332E-22 2.54736599E+04-4.46682853E-01                   4
H2                TPIS78H   2               G   200.000  3500.000  1000.000    1
 3.33727920E+00-4.94024731E-05 4.99456778E-07-1.79566394E-10 2.00255376E-14    2
-9.50158922E+02-3.20502331E+00 2.34433112E+00 7.98052075E-03-1.94781510E-05    3
 2.01572094E-08-7.37611761E-12-9.17935173E+02 6.83010238E-01                   4
OH                RUS 78O   1H   1          G   200.000  3500.000  1000.000    1
 3.09288767E+00 5.48429716E-04 1.26505228E-07-8.79461556E-11 1.17412376E-14    2
 3.85865700E+03 4.47669610E+00 3.99201543E+00-2.40131752E-03 4.61793841E-06    3
-3.88113333E-09 1.36411470E-12 3.61508056E+03-1.03925458E-01                   4
H2O               L 8/89H   2O   1          G   200.000  3500.000  1000.000    1
 3.03399249E+00 2.17691804E-03-1.64072518E-07-9.70419870E-11 1.68200992E-14    2
-3.00042971E+04 4.96677010E+00 4.19864056E+00-2.03643410E-03 6.52040211E-06    3
-5.48797062E-09 1.77197817E-12-3.02937267E+04-8.49032208E-01                   4
HO2               L 5/89H   1O   2          G   200.000  3500.000  1000.000    1
 4.01721090E+00 2.23982013E-03-6.33658150E-07 1.14246370E-10-1.07908535E-14    2
 1.11856713E+02 3.78510215E+00 4.30179801E+00-4.74912051E-03 2.11582891E-05    3
-2.42763894E-08 9.29225124E-12 2.94808040E+02 3.71666245E+00                   4
H2O2              L 7/88H   2O   2          G   200.000  3500.000  1000.000    1
 4.16500285E+00 4.90831694E-03-1.90139225E-06 3.71185986E-10-2.87908305E-14    2
-1.78617877E+04 2.91615662E+00 4.27611269E+00-5.42822417E-04 1.67335701E-05    3
-2.15770813E-08 8.62454363E-12-1.77025821E+04 3.43505074E+00                   4
C                 L11/88C   1               G   200.000  3500.000  1000.000    1
 2.49266888E+00 4.79889284E-05-7.24335020E-08 3.74291029E-11-4.87277893E-15    2
 8.54512953E+04 4.80150373E+00 2.55423955E+00-3.21537724E-04 7.33792245E-07    3
-7.32234889E-10 2.66521446E-13 8.54438832E+04 4.53130848E+00                   4
CH                TPIS79C   1H   1          G   200.000  3500.000  1000.000    1
 2.87846473E+00 9.70913681E-04 1.44445655E-07-1.30687849E-10 1.76079383E-14    2
 7.10124364E+04 5.48497999E+00 3.48981665E+00 3.23835541E-04-1.68899065E-06    3
 3.16217327E-09-1.40609067E-12 7.07972934E+04 2.08401108E+00                   4
CH2               L S/93C   1H   2          G   200.000  3500.000  1000.000    1
 2.87410113E+00 3.65639292E-03-1.40894597E-06 2.60179549E-10-1.87727567E-14    2
 4.62636040E+04 6.17119324E+00 3.76267867E+00 9.68872143E-04 2.79489841E-06    3
-3.85091153E-09 1.68741719E-12 4.60040401E+04 1.56253185E+00                   4
CH2(S)            L S/93C   1H   2          G   200.000  3500.000  1000.000    1
 2.29203842E+00 4.65588637E-03-2.01191947E-06 4.17906000E-10-3.39716365E-14    2
 5.09259997E+04 8.62650169E+00 4.19860411E+00-2.36661419E-03 8.23296220E-06    3
-6.68815981E-09 1.94314737E-12 5.04968163E+04-7.69118967E-01                   4

!Primary Thermo Library: Burcat (Species ID: CH3)
CH3                     C   1H   3          G   300.000  5000.000   995.043    1
 3.30135733E+00 5.18030141E-03-1.62114306E-06 2.37831978E-10-1.33298751E-14    2
 1.63968951E+04 2.94688270E+00 3.96853937E+00-8.71548811E-05 1.02168742E-05    3
-1.03047546E-08 3.29151406E-12 1.63921134E+04 3.74584663E-01                   4
!CH3               L11/89C   1H   3          G   200.000  3500.000  1000.000    1
! 2.28571772E+00 7.23990037E-03-2.98714348E-06 5.95684644E-10-4.67154394E-14    2
! 1.67755843E+04 8.48007179E+00 3.67359040E+00 2.01095175E-03 5.73021856E-06    3
!-6.87117425E-09 2.54385734E-12 1.64449988E+04 1.60456433E+00                   4

CH4               L 8/88C   1H   4          G   200.000  3500.000  1000.000    1
 7.48514950E-02 1.33909467E-02-5.73285809E-06 1.22292535E-09-1.01815230E-13    2
-9.46834459E+03 1.84373180E+01 5.14987613E+00-1.36709788E-02 4.91800599E-05    3
-4.84743026E-08 1.66693956E-11-1.02466476E+04-4.64130376E+00                   4
CO                TPIS79C   1O   1          G   200.000  3500.000  1000.000    1
 2.71518561E+00 2.06252743E-03-9.98825771E-07 2.30053008E-10-2.03647716E-14    2
-1.41518724E+04 7.81868772E+00 3.57953347E+00-6.10353680E-04 1.01681433E-06    3
 9.07005884E-10-9.04424499E-13-1.43440860E+04 3.50840928E+00                   4
CO2               L 7/88C   1O   2          G   200.000  3500.000  1000.000    1
 3.85746029E+00 4.41437026E-03-2.21481404E-06 5.23490188E-10-4.72084164E-14    2
-4.87591660E+04 2.27163806E+00 2.35677352E+00 8.98459677E-03-7.12356269E-06    3
 2.45919022E-09-1.43699548E-13-4.83719697E+04 9.90105222E+00                   4
HCO               L12/89H   1C   1O   1     G   200.000  3500.000  1000.000    1
 2.77217438E+00 4.95695526E-03-2.48445613E-06 5.89161778E-10-5.33508711E-14    2
 4.01191815E+03 9.79834492E+00 4.22118584E+00-3.24392532E-03 1.37799446E-05    3
-1.33144093E-08 4.33768865E-12 3.83956496E+03 3.39437243E+00                   4
CH2O              L 8/88H   2C   1O   1     G   200.000  3500.000  1000.000    1
 1.76069008E+00 9.20000082E-03-4.42258813E-06 1.00641212E-09-8.83855640E-14    2
-1.39958323E+04 1.36563230E+01 4.79372315E+00-9.90833369E-03 3.73220008E-05    3
-3.79285261E-08 1.31772652E-11-1.43089567E+04 6.02812900E-01                   4

!Burcat
CH2OH RADICAL     IU2/03C  1.H  3.O  1.   0.G   200.000  6000.000 1000.        1
 5.09312037E+00 5.94758550E-03-2.06496524E-06 3.23006703E-10-1.88125052E-14    2
-4.05813228E+03-1.84690613E+00 4.47832317E+00-1.35069687E-03 2.78483707E-05    3
-3.64867397E-08 1.47906775E-11-3.52476728E+03 3.30911984E+00-2.06867272E+03    4
!CH2OH             GUNL93C   1H   3O   1     G   200.000  3500.000  1000.000    1
! 3.69266569E+00 8.64576797E-03-3.75101120E-06 7.87234636E-10-6.48554201E-14    2
!-3.24250627E+03 5.81043215E+00 3.86388918E+00 5.59672304E-03 5.93271791E-06    3
!-1.04532012E-08 4.36967278E-12-3.19391367E+03 5.47302243E+00                   4

!Burcat
CH3O  METHOXY RAD IU1/03C  1.H  3.O  1.   0.G   200.000  6000.000 1000.        1
 4.75779238E+00 7.44142474E-03-2.69705176E-06 4.38090504E-10-2.63537098E-14    2
 3.90139164E+02-1.96680028E+00 3.71180502E+00-2.80463306E-03 3.76550971E-05    3
-4.73072089E-08 1.86588420E-11 1.30772484E+03 6.57240864E+00 2.53773223E+03    4
!CH3O              121686C   1H   3O   1     G   300.00   3000.00   1000.000    1
! 0.03770799E+02 0.07871497E-01-0.02656384E-04 0.03944431E-08-0.02112616E-12    2
! 0.12783252E+03 0.02929575E+02 0.02106204E+02 0.07216595E-01 0.05338472E-04    3
!-0.07377636E-07 0.02075610E-10 0.09786011E+04 0.13152177E+02                   4

CH3OH             L 8/88C   1H   4O   1     G   200.000  3500.000  1000.000    1
 1.78970791E+00 1.40938292E-02-6.36500835E-06 1.38171085E-09-1.17060220E-13    2
-2.53748747E+04 1.45023623E+01 5.71539582E+00-1.52309129E-02 6.52441155E-05    3
-7.10806889E-08 2.61352698E-11-2.56427656E+04-1.50409823E+00                   4
C2H               L 1/91C   2H   1          G   200.000  3500.000  1000.000    1
 3.16780652E+00 4.75221902E-03-1.83787077E-06 3.04190252E-10-1.77232770E-14    2
 6.71210650E+04 6.63589475E+00 2.88965733E+00 1.34099611E-02-2.84769501E-05    3
 2.94791045E-08-1.09331511E-11 6.68393932E+04 6.22296438E+00                   4
C2H2              L 1/91C   2H   2          G   200.000  3500.000  1000.000    1
 4.14756964E+00 5.96166664E-03-2.37294852E-06 4.67412171E-10-3.61235213E-14    2
 2.59359992E+04-1.23028121E+00 8.08681094E-01 2.33615629E-02-3.55171815E-05    3
 2.80152437E-08-8.50072974E-12 2.64289807E+04 1.39397051E+01                   4
C2H3              L 2/92C   2H   3          G   200.000  3500.000  1000.000    1
 3.01672400E+00 1.03302292E-02-4.68082349E-06 1.01763288E-09-8.62607041E-14    2
 3.46128739E+04 7.78732378E+00 3.21246645E+00 1.51479162E-03 2.59209412E-05    3
-3.57657847E-08 1.47150873E-11 3.48598468E+04 8.51054025E+00                   4
C2H4              L 1/91C   2H   4          G   200.000  3500.000  1000.000    1
 2.03611116E+00 1.46454151E-02-6.71077915E-06 1.47222923E-09-1.25706061E-13    2
 4.93988614E+03 1.03053693E+01 3.95920148E+00-7.57052247E-03 5.70990292E-05    3
-6.91588753E-08 2.69884373E-11 5.08977593E+03 4.09733096E+00                   4

!Burcat
C2H5 ethyl radic  IU1/07C  2.H  5.   0.   0.G   200.000  6000.000 1000.        1
 4.32195633E+00 1.23930542E-02-4.39680960E-06 7.03519917E-10-4.18435239E-14    2
 1.21759475E+04 1.71103809E-01 4.24185905E+00-3.56905235E-03 4.82667202E-05    3
-5.85401009E-08 2.25804514E-11 1.29690344E+04 4.44703782E+00 1.43965189E+04    4
!C2H5              L12/92C   2H   5          G   200.000  3500.000  1000.000    1
! 1.95465642E+00 1.73972722E-02-7.98206668E-06 1.75217689E-09-1.49641576E-13    2
! 1.28575200E+04 1.34624343E+01 4.30646568E+00-4.18658892E-03 4.97142807E-05    3
!-5.99126606E-08 2.30509004E-11 1.28416265E+04 4.70720924E+00                   4

C2H6              L 8/88C   2H   6          G   200.000  3500.000  1000.000    1
 1.07188150E+00 2.16852677E-02-1.00256067E-05 2.21412001E-09-1.90002890E-13    2
-1.14263932E+04 1.51156107E+01 4.29142492E+00-5.50154270E-03 5.99438288E-05    3
-7.08466285E-08 2.68685771E-11-1.15222055E+04 2.66682316E+00                   4
CH2CO             L 5/90C   2H   2O   1     G   200.000  3500.000  1000.000    1
 4.51129732E+00 9.00359745E-03-4.16939635E-06 9.23345882E-10-7.94838201E-14    2
-7.55105311E+03 6.32247205E-01 2.13583630E+00 1.81188721E-02-1.73947474E-05    3
 9.34397568E-09-2.01457615E-12-7.04291804E+03 1.22156480E+01                   4
HCCO              SRIC91H   1C   2O   1     G   300.00   4000.00   1000.000    1
 0.56282058E+01 0.40853401E-02-0.15934547E-05 0.28626052E-09-0.19407832E-13    2
 0.19327215E+05-0.39302595E+01 0.22517214E+01 0.17655021E-01-0.23729101E-04    3
 0.17275759E-07-0.50664811E-11 0.20059449E+05 0.12490417E+02                   4
HCCOH              SRI91C   2O   1H   2     G   300.000  5000.000  1000.000    1
 0.59238291E+01 0.67923600E-02-0.25658564E-05 0.44987841E-09-0.29940101E-13    2
 0.72646260E+04-0.76017742E+01 0.12423733E+01 0.31072201E-01-0.50866864E-04    3
 0.43137131E-07-0.14014594E-10 0.80316143E+04 0.13874319E+02                   4
H2CN               41687H   2C   1N   1     G   300.00   4000.000  1000.000    1
 0.52097030E+01 0.29692911E-02-0.28555891E-06-0.16355500E-09 0.30432589E-13    2
 0.27677109E+05-0.44444780E+01 0.28516610E+01 0.56952331E-02 0.10711400E-05    3
-0.16226120E-08-0.23511081E-12 0.28637820E+05 0.89927511E+01                   4
HCN               GRI/98H   1C   1N   1     G   200.000  6000.000  1000.000    1
 0.38022392E+01 0.31464228E-02-0.10632185E-05 0.16619757E-09-0.97997570E-14    2
 0.14407292E+05 0.15754601E+01 0.22589886E+01 0.10051170E-01-0.13351763E-04    3
 0.10092349E-07-0.30089028E-11 0.14712633E+05 0.89164419E+01                   4
HNO               And93 H   1N   1O   1     G   200.000  6000.000  1000.000    1
 0.29792509E+01 0.34944059E-02-0.78549778E-06 0.57479594E-10-0.19335916E-15    2
 0.11750582E+05 0.86063728E+01 0.45334916E+01-0.56696171E-02 0.18473207E-04    3
-0.17137094E-07 0.55454573E-11 0.11548297E+05 0.17498417E+01                   4
N                 L 6/88N   1               G   200.000  6000.000  1000.000    1
 0.24159429E+01 0.17489065E-03-0.11902369E-06 0.30226245E-10-0.20360982E-14    2
 0.56133773E+05 0.46496096E+01 0.25000000E+01 0.00000000E+00 0.00000000E+00    3
 0.00000000E+00 0.00000000E+00 0.56104637E+05 0.41939087E+01                   4
NNH               T07/93N   2H   1          G   200.000  6000.000  1000.000    1
 0.37667544E+01 0.28915082E-02-0.10416620E-05 0.16842594E-09-0.10091896E-13    2
 0.28650697E+05 0.44705067E+01 0.43446927E+01-0.48497072E-02 0.20059459E-04    3
-0.21726464E-07 0.79469539E-11 0.28791973E+05 0.29779410E+01                   4
N2O               L 7/88N   2O   1          G   200.000  6000.000  1000.000    1
 0.48230729E+01 0.26270251E-02-0.95850874E-06 0.16000712E-09-0.97752303E-14    2
 0.80734048E+04-0.22017207E+01 0.22571502E+01 0.11304728E-01-0.13671319E-04    3
 0.96819806E-08-0.29307182E-11 0.87417744E+04 0.10757992E+02                   4
NH                And94 N   1H   1          G   200.000  6000.000  1000.000    1
 0.27836928E+01 0.13298430E-02-0.42478047E-06 0.78348501E-10-0.55044470E-14    2
 0.42120848E+05 0.57407799E+01 0.34929085E+01 0.31179198E-03-0.14890484E-05    3
 0.24816442E-08-0.10356967E-11 0.41880629E+05 0.18483278E+01                   4
NH2               And89 N   1H   2          G   200.000  6000.000  1000.000    1
 0.28347421E+01 0.32073082E-02-0.93390804E-06 0.13702953E-09-0.79206144E-14    2
 0.22171957E+05 0.65204163E+01 0.42040029E+01-0.21061385E-02 0.71068348E-05    3
-0.56115197E-08 0.16440717E-11 0.21885910E+05-0.14184248E+00                   4
NH3               J 6/77N   1H   3          G   200.000  6000.000  1000.000    1
 0.26344521E+01 0.56662560E-02-0.17278676E-05 0.23867161E-09-0.12578786E-13    2
-0.65446958E+04 0.65662928E+01 0.42860274E+01-0.46605230E-02 0.21718513E-04    3
-0.22808887E-07 0.82638046E-11-0.67417285E+04-0.62537277E+00                   4
NO                RUS 78N   1O   1          G   200.000  6000.000  1000.000    1
 0.32606056E+01 0.11911043E-02-0.42917048E-06 0.69457669E-10-0.40336099E-14    2
 0.99209746E+04 0.63693027E+01 0.42184763E+01-0.46389760E-02 0.11041022E-04    3
-0.93361354E-08 0.28035770E-11 0.98446230E+04 0.22808464E+01                   4
NO2               L 7/88N   1O   2          G   200.000  6000.000  1000.000    1
 0.48847542E+01 0.21723956E-02-0.82806906E-06 0.15747510E-09-0.10510895E-13    2
 0.23164983E+04-0.11741695E+00 0.39440312E+01-0.15854290E-02 0.16657812E-04    3
-0.20475426E-07 0.78350564E-11 0.28966179E+04 0.63119917E+01                   4
HCNO              BDEA94H   1N   1C   1O   1G   300.000  5000.000  1382.000    1
 6.59860456E+00 3.02778626E-03-1.07704346E-06 1.71666528E-10-1.01439391E-14    2
 1.79661339E+04-1.03306599E+01 2.64727989E+00 1.27505342E-02-1.04794236E-05    3
 4.41432836E-09-7.57521466E-13 1.92990252E+04 1.07332972E+01                   4
HOCN              BDEA94H   1N   1C   1O   1G   300.000  5000.000  1368.000    1
 5.89784885E+00 3.16789393E-03-1.11801064E-06 1.77243144E-10-1.04339177E-14    2
-3.70653331E+03-6.18167825E+00 3.78604952E+00 6.88667922E-03-3.21487864E-06    3
 5.17195767E-10 1.19360788E-14-2.82698400E+03 5.63292162E+00                   4
HNCO              BDEA94H   1N   1C   1O   1G   300.000  5000.000  1478.000    1
 6.22395134E+00 3.17864004E-03-1.09378755E-06 1.70735163E-10-9.95021955E-15    2
-1.66599344E+04-8.38224741E+00 3.63096317E+00 7.30282357E-03-2.28050003E-06    3
-6.61271298E-10 3.62235752E-13-1.55873636E+04 6.19457727E+00                   4
NCO               EA 93 N   1C   1O   1     G   200.000  6000.000  1000.000    1
 0.51521845E+01 0.23051761E-02-0.88033153E-06 0.14789098E-09-0.90977996E-14    2
 0.14004123E+05-0.25442660E+01 0.28269308E+01 0.88051688E-02-0.83866134E-05    3
 0.48016964E-08-0.13313595E-11 0.14682477E+05 0.95504646E+01                   4
CN                HBH92 C   1N   1          G   200.000  6000.000  1000.000    1
 0.37459805E+01 0.43450775E-04 0.29705984E-06-0.68651806E-10 0.44134173E-14    2
 0.51536188E+05 0.27867601E+01 0.36129351E+01-0.95551327E-03 0.21442977E-05    3
-0.31516323E-09-0.46430356E-12 0.51708340E+05 0.39804995E+01                   4
HCNN              SRI/94C   1N   2H   1     G   300.000  5000.000  1000.000    1
 0.58946362E+01 0.39895959E-02-0.15982380E-05 0.29249395E-09-0.20094686E-13    2
 0.53452941E+05-0.51030502E+01 0.25243194E+01 0.15960619E-01-0.18816354E-04    3
 0.12125540E-07-0.32357378E-11 0.54261984E+05 0.11675870E+02                   4
N2                121286N   2               G   300.000  5000.000  1000.000    1
 0.02926640E+02 0.14879768E-02-0.05684760E-05 0.10097038E-09-0.06753351E-13    2
-0.09227977E+04 0.05980528E+02 0.03298677E+02 0.14082404E-02-0.03963222E-04    3
 0.05641515E-07-0.02444854E-10-0.10208999E+04 0.03950372E+02                   4
AR                120186AR  1               G   300.000  5000.000  1000.000    1
 0.02500000E+02 0.00000000E+00 0.00000000E+00 0.00000000E+00 0.00000000E+00    2
-0.07453750E+04 0.04366000E+02 0.02500000E+02 0.00000000E+00 0.00000000E+00    3
 0.00000000E+00 0.00000000E+00-0.07453750E+04 0.04366000E+02                   4
C3H8              L 4/85C   3H   8          G   300.000  5000.000  1000.000    1
 0.75341368E+01 0.18872239E-01-0.62718491E-05 0.91475649E-09-0.47838069E-13    2
-0.16467516E+05-0.17892349E+02 0.93355381E+00 0.26424579E-01 0.61059727E-05    3
-0.21977499E-07 0.95149253E-11-0.13958520E+05 0.19201691E+02                   4
! DO NOT WANT TO USE GRI-MECH DEFINED C3H7 SPECIES
!C3H7              L 9/84C   3H   7          G   300.000  5000.000  1000.000    1
! 0.77026987E+01 0.16044203E-01-0.52833220E-05 0.76298590E-09-0.39392284E-13    2
! 0.82984336E+04-0.15480180E+02 0.10515518E+01 0.25991980E-01 0.23800540E-05    3
!-0.19609569E-07 0.93732470E-11 0.10631863E+05 0.21122559E+02                   4
CH3CHO            L 8/88C   2H   4O   1     G   200.000  6000.000  1000.000    1
 0.54041108E+01 0.11723059E-01-0.42263137E-05 0.68372451E-09-0.40984863E-13    2
-0.22593122E+05-0.34807917E+01 0.47294595E+01-0.31932858E-02 0.47534921E-04    3
-0.57458611E-07 0.21931112E-10-0.21572878E+05 0.41030159E+01                   4
CH2CHO            SAND86O   1H   3C   2     G   300.000  5000.000  1000.000    1
 0.05975670E+02 0.08130591E-01-0.02743624E-04 0.04070304E-08-0.02176017E-12    2
 0.04903218E+04-0.05045251E+02 0.03409062E+02 0.10738574E-01 0.01891492E-04    3
-0.07158583E-07 0.02867385E-10 0.15214766E+04 0.09558290E+02                   4

! The following are from the Marinov mechanism
C2O               121286C   2O   1          g  0300.00   5000.00  1000.00      1
 0.04849809e+02 0.02947585e-01-0.01090729e-04 0.01792562e-08-0.01115758e-12    2
 0.03282055e+06-0.06453226e+01 0.03368851e+02 0.08241803e-01-0.08765145e-04    3
 0.05569262e-07-0.01540009e-10 0.03317081e+06 0.06713314e+02                   4
sC3H5              82489C   3H   5          g  0300.00   4000.00  1000.00      1
 0.09101018e+02 0.07964168e-01-0.07884945e-05-0.04562036e-08 0.08529212e-12    2
 0.02670680e+06-0.02150559e+03 0.03385811e+02 0.01404534e+00 0.03204127e-04    3
-0.03824120e-07-0.09053742e-11 0.02909066e+06 0.01126649e+03                   4
HCOH              mar94 C   1H   2O   1    0g   300.     5000.    1398.        1
 9.18749272e 00 1.52011152e-03-6.27603516e-07 1.09727989e-10-6.89655128e-15    2
 7.81364593e 03-2.73434214e 01-2.82157421e 00 3.57331702e-02-3.80861580e-05    3
 1.86205951e-08-3.45957838e-12 1.12956672e 04 3.48487757e 01                   4
HCOOH             103190C   1H   2O   2     g  0300.00   4000.00  1500.00      1
 0.07959698E+02 0.03024532E-01-0.03434242E-05-0.01326767E-08 0.02520240E-12    2
-0.05027445E+06-0.01872208E+03 0.09326031E+01 0.01891002E+00-0.01554964E-03    3
 0.07290031E-07-0.01483695E-10-0.04760071E+06 0.01950653E+03                   4
C2H5OH                  C   2H   6O   1    0g   300.000  5000.000 1000.000     1
 0.65624365e 01 0.15204222e-01-0.53896795e-05 0.86225011e-09-0.51289787e-13    2
-0.31525621e 05-0.94730202e 01 0.48586957e 01-0.37401726e-02 0.69555378e-04    3
-0.88654796e-07 0.35168835e-10-0.29996132e 05 0.48018545e 01                   4
C2H5O-3                 C   2H   5O   1     g  0300.00   5000.00  1405.00      1
 8.31182392e 00 1.03426319e-02-3.39186089e-06 5.12212617e-10-2.91601713e-14    2
-6.13097954e 03-2.13985581e 01-2.71296378e-01 2.98839812e-02-1.97090548e-05    3
 6.37339893e-09-7.77965054e-13-3.16397196e 03 2.47706003e 01                   4
CH3CO                   C   2H   3O   1     g  0300.00   5000.00  1000.00      1
 0.05612279e+02 0.08449886e-01-0.02854147e-04 0.04238376e-08-0.02268404e-12    2
-0.05187863e+05-0.03274949e+02 0.03125278e+02 0.09778220e-01 0.04521448e-04    3
-0.09009462e-07 0.03193718e-10-0.04108508e+05 0.01122885e+03                   4
HOC2H4O2                C   2H   5O   3    0g   300.000  5000.    1395.00      1
 9.22339915e 00 1.41346358e-02-4.75283025e-06 7.28795964e-10-4.18969629e-14    2
-2.35984031e 04-1.53847386e 01 3.58811609e 00 2.99414161e-02-2.35156549e-05    3
 1.12635525e-08-2.28663686e-12-2.17409435e 04 1.42166729e 01                   4
HCOCHO                  C   2H   2O   2    0g   300.     5000.    1396.        1
 9.75438561e 00 4.97645947e-03-1.74410483e-06 2.75586994e-10-1.61969892e-14    2
-2.95832896e 04-2.48038370e 01 1.88105121e 00 2.36386368e-02-1.83443295e-05    3
 6.84842963e-09-9.92733674e-13-2.69280190e 04 1.72994753e 01                   4
C3H7-2                  C   3H   7    0    0g   300.     5000.    1373.        1
 9.73563939e 00 1.43303634e-02-4.88106037e-06 7.56304810e-10-4.38380156e-14    2
 5.67000911e 03-2.78414926e 01 5.86358461e-01 3.21021065e-02-1.69517004e-05    3
 3.98986301e-09-2.87510333e-13 9.26003586e 03 2.26632577e 01                   4
pC3H5                   C   3H   5          g  0300.00   4000.00  1000.00      1
 0.09209764e+02 0.07871413e-01-0.07724523e-05-0.04497357e-08 0.08377272e-12    2
 0.02853967e+06-0.02232370e+03 0.03161863e+02 0.01518100e+00 0.02722659e-04    3
-0.05177112e-07 0.05435286e-12 0.03095548e+06 0.01197973e+03                   4
C3H4O-enone             C   3H   4O   1    0g   300.00   5000.    1392.        1
 9.40386796e 00 9.90994860e-03-3.34130605e-06 5.13787016e-10-2.96102254e-14    2
-1.42771281e 04-2.42902025e 01 2.69187311e 00 2.49761396e-02-1.61712107e-05    3
 5.46391115e-09-7.62496644e-13-1.18758805e 04 1.19898101e 01                   4
C3H3O-enone             C   3H   3O   1    0g   300.00   5000.    1387.        1
 9.98488581e 00 7.41421822e-03-2.60020164e-06 4.10510515e-10-2.40965108e-14    2
 2.32744789e 03-2.72603529e 01 1.93844931e 00 2.81736198e-02-2.40080561e-05    3
 1.07680466e-08-1.96954458e-12 4.97456651e 03 1.53411361e 01                   4
C3H5O-enal              C   3H   5O   1    0g   300.000  5000.000 1000.00      1
 9.44477437e 00 1.27039625e-02-4.56349179e-06 8.06113328e-10-5.26599798e-14    2
 6.70242803e 03-2.49387079e 01-2.08814829e-03 3.58473202e-02-2.67606354e-05    3
 1.06914296e-08-1.76330732e-12 9.89673084e 03 2.54501512e 01                   4

! The following were added for n-butanol chemistry, as computed by RMG
! Note: all ATcT data are as of 05/27/2008
! ftp://ftp.technion.ac.il/pub/supported/aetdd/thermodynamics/THERM.DAT

C3H2 RMG                C   3H   2O   0     G   300.000  5000.000   995.043    1
 5.23659121E+00 7.17558058E-03-1.79402607E-06 1.62979516E-10-4.00857498E-15    2
 5.88323643E+04-2.48721668E-01 3.19920491E+00 1.06184960E-02 1.72192871E-07    3
-5.94901202E-09 2.73623544E-12 5.94728356E+04 1.07512889E+01                   4
!C3H2 ATcT               C  3.H  2.   0.   0.G   200.000  6000.000 1000.        1
! 7.47247827E+00 4.57765160E-03-1.56482125E-06 2.43991965E-10-1.42462924E-14    2
! 8.83321441E+04-1.27113314E+01 3.74356467E+00 2.51955211E-02-4.62608277E-05    3
! 4.34360520E-08-1.53992558E-11 8.89297787E+04 4.22612394E+00 9.08356403E+04    4
