ELEMENTS
C	H	O
END
SPECIES
H2
H.
CH4
CH3.
C2H4
C2H3.
C2H6
C2H5.
C3H6
C3H5.
vC3H5-1.
vC3H5-2.
C3H8
_1C3H7.
_2C3H7.
_1.3C4H6
_1-C4H8
_1C4-3.
_1C4-4.
_2-C4H8
_2C4-1.
i-C4H8
iC4H7.
i-C4H10
iC4H9.
tC4H9.
n-C4H10
_1C4H9.
_2C4H9.
_1-C5H10
_2-C5H10
_2m-1-C4H8
_3m-1-C4H8
C6di
C6ol
iC6ol
C7di
iC7di
C7ol
iC7ol
C8di
iC8di
_1C5ol-5.
_1C5ol-4.
_1C5ol-3.
_2C5ol-5.
_2C5ol-4.
_3m1C4-4.
_3m1C4-3.
_2m-2-C4H8
_2m1C4-4.
_2m1C4-3.
cyC5ol
cC5ol-3.
cC5ol-4.
_1.3-C5di
C5di-3.
_1.4-C5di
xylene
toluene
etBenzene
benzene
styrene
C9arool
C10arool
C2H2
C3H4(MA)
C3H4(PD)
iC5-1.
iC5-2.
iC5-3.
iC5-4.
nC5-1.
nC5-2.
nC5-3.
isoprene
CPD
cyC5.
_1C6ol-4.
nC6-3.
_3et1C4ol
_4etC5ol5
_1C7ol5.
_3m1c5ol4
iC6di-1
_3mC5-2.
_4mC6ol5.
_33m1C4ol
_4m1C5ol4
_22dmC4-1
_44mC5ol5
iC6di-2
_4m1C5ol5
_1C6ol-5.
_2mC5-1.
_23dmC4-1
_34mC5ol5
_5mC6ol6.
_2mC6ol6.
_24mC5ol5
C7di-as.
C6di-as.
_2mC5-3.
_3mC5-3.
_5m1C6ol5.
_6m2C7ol6.
_55m2C6ol6
_35m1C6ol5
_344mC5ol5
_25m1C6ol5
_244mC5ol5
cyC6di
mcyC6di
cyC6ol
mcyC6ol
vicyC6ol
etcyC6ol
dmcyC6ol
dmcyC6di
etcyC6di
mCPD
indene
Naphthene
mcyC5ol
mIndene
mNaphth
Biphenyl
vicyC6di
tmBenz
me-anthr
anthracene
me-phenthr
phenanthrene
C153aro
H2O
END
THERMO ALL
300
	
1000
	
5000
H2                      C   0H   2O   0     G      300.     5000.   1000.      1
 0.32623684E+01 0.11146300E-02-0.15096600E-05 0.00000000E+00 0.00000000E+00    2
-0.10088797E+04-0.31474240E+01 0.32623684E+01 0.11146300E-02-0.15096600E-05    3
 0.00000000E+00 0.00000000E+00-0.10088797E+04-0.31474240E+01                   4
H.                      C   0H   1O   0     G      300.     5000.   1000.      1
 0.25160949E+01 0.00000000E+00 0.00000000E+00 0.00000000E+00 0.00000000E+00    2
 0.25467535E+05-0.54749399E+00 0.25160949E+01 0.00000000E+00 0.00000000E+00    3
 0.00000000E+00 0.00000000E+00 0.25467535E+05-0.54749399E+00                   4
CH4                     C   1H   4O   0     G      300.     5000.   1000.      1
 0.23138008E+01 0.62650759E-02 0.15096600E-05 0.00000000E+00 0.00000000E+00    2
-0.99837432E+04 0.72751083E+01 0.23138008E+01 0.62650759E-02 0.15096600E-05    3
 0.00000000E+00 0.00000000E+00-0.99837432E+04 0.72751083E+01                   4
CH3.                    C   1H   3O   0     G      300.     5000.   1000.      1
 0.29237022E+01 0.51026400E-02 0.00000000E+00 0.00000000E+00 0.00000000E+00    2
 0.16161913E+05 0.51699319E+01 0.29237022E+01 0.51026400E-02 0.00000000E+00    3
 0.00000000E+00 0.00000000E+00 0.16161913E+05 0.51699319E+01                   4
C2H4                    C   2H   4O   0     G      300.     5000.   1000.      1
 0.15680303E+00 0.19575218E-01-0.10567600E-04 0.00000000E+00 0.00000000E+00    2
 0.54768564E+04 0.20143843E+02 0.15680303E+00 0.19575218E-01-0.10567600E-04    3
 0.00000000E+00 0.00000000E+00 0.54768564E+04 0.20143843E+02                   4
C2H3.                   C   2H   3O   0     G      300.     5000.   1000.      1
 0.15514240E+01 0.12902534E-01-0.65418499E-05 0.00000000E+00 0.00000000E+00    2
 0.33743871E+05 0.15935712E+02 0.15514240E+01 0.12902534E-01-0.65418499E-05    3
 0.00000000E+00 0.00000000E+00 0.33743871E+05 0.15935712E+02                   4
C2H6                    C   2H   6O   0     G      300.     5000.   1000.      1
-0.16898093E+00 0.24592310E-01-0.11574000E-04 0.00000000E+00 0.00000000E+00    2
-0.11206081E+05 0.21862316E+02-0.16898093E+00 0.24592310E-01-0.11574000E-04    3
 0.00000000E+00 0.00000000E+00-0.11206081E+05 0.21862316E+02                   4
C2H5.                   C   2H   5O   0     G      300.     5000.   1000.      1
 0.78552479E+00 0.20933909E-01-0.11070800E-04 0.00000000E+00 0.00000000E+00    2
 0.11886014E+05 0.18986874E+02 0.78552479E+00 0.20933909E-01-0.11070800E-04    3
 0.00000000E+00 0.00000000E+00 0.11886014E+05 0.18986874E+02                   4
C3H6                    C   3H   6O   0     G      300.     5000.   1000.      1
 0.41953364E+00 0.28532514E-01-0.14593400E-04 0.00000000E+00 0.00000000E+00    2
 0.10756331E+04 0.21861725E+02 0.41953364E+00 0.28532514E-01-0.14593400E-04    3
 0.00000000E+00 0.00000000E+00 0.10756331E+04 0.21861725E+02                   4
C3H5.                   C   3H   5O   0     G      300.     5000.   1000.      1
-0.49144365E-01 0.30449780E-01-0.19625500E-04 0.00000000E+00 0.00000000E+00    2
 0.19265332E+05 0.23449396E+02-0.49144365E-01 0.30449780E-01-0.19625500E-04    3
 0.00000000E+00 0.00000000E+00 0.19265332E+05 0.23449396E+02                   4
vC3H5-1.                C   3H   5O   0     G      300.     5000.   1000.      1
 0.12781762E+01 0.25563523E-01-0.24154500E-04 0.00000000E+00 0.00000000E+00    2
 0.30866879E+05 0.19240843E+02 0.12781762E+01 0.25563523E-01-0.24154500E-04    3
 0.00000000E+00 0.00000000E+00 0.30866879E+05 0.19240843E+02                   4
vC3H5-2.                C   3H   5O   0     G      300.     5000.   1000.      1
 0.19897277E+01 0.21422030E-01-0.19122301E-04 0.00000000E+00 0.00000000E+00    2
 0.29093469E+05 0.15870737E+02 0.19897277E+01 0.21422030E-01-0.19122301E-04    3
 0.00000000E+00 0.00000000E+00 0.29093469E+05 0.15870737E+02                   4
C3H8                    C   3H   8O   0     G      300.     5000.   1000.      1
-0.29750305E+00 0.36100928E-01-0.18619099E-04 0.00000000E+00 0.00000000E+00    2
-0.14097912E+05 0.24216742E+02-0.29750305E+00 0.36100928E-01-0.18619099E-04    3
 0.00000000E+00 0.00000000E+00-0.14097912E+05 0.24216742E+02                   4
_1C3H7.                 C   3H   7O   0     G      300.     5000.   1000.      1
 0.51227689E+00 0.33594899E-01-0.19625500E-04 0.00000000E+00 0.00000000E+00    2
 0.89290000E+04 0.21889408E+02 0.51227689E+00 0.33594899E-01-0.19625500E-04    3
 0.00000000E+00 0.00000000E+00 0.89290000E+04 0.21889408E+02                   4
_2C3H7.                 C   3H   7O   0     G      300.     5000.   1000.      1
 0.12238286E+01 0.29453406E-01-0.14593400E-04 0.00000000E+00 0.00000000E+00    2
 0.71555898E+04 0.18519302E+02 0.12238286E+01 0.29453406E-01-0.14593400E-04    3
 0.00000000E+00 0.00000000E+00 0.71555898E+04 0.18519302E+02                   4
_1.3C4H6                C   4H   6O   0     G      300.     5000.   1000.      1
-0.88818145E+00 0.43593857E-01-0.30696399E-04 0.00000000E+00 0.00000000E+00    2
 0.11722346E+05 0.26941727E+02-0.88818145E+00 0.43593857E-01-0.30696399E-04    3
 0.00000000E+00 0.00000000E+00 0.11722346E+05 0.26941727E+02                   4
_1-C4H8                 C   4H   8O   0     G      300.     5000.   1000.      1
-0.57165676E+00 0.43231539E-01-0.24657700E-04 0.00000000E+00 0.00000000E+00    2
-0.15885752E+04 0.28218655E+02-0.57165676E+00 0.43231539E-01-0.24657700E-04    3
 0.00000000E+00 0.00000000E+00-0.15885752E+04 0.28218655E+02                   4
_1C4-3.                 C   4H   7O   0     G      300.     5000.   1000.      1
 0.60537241E-01 0.40499061E-01-0.24657700E-04 0.00000000E+00 0.00000000E+00    2
 0.13883787E+05 0.25516903E+02 0.60537241E-01 0.40499061E-01-0.24657700E-04    3
 0.00000000E+00 0.00000000E+00 0.13883787E+05 0.25516903E+02                   4
_1C4-4.                 C   4H   7O   0     G      300.     5000.   1000.      1
 0.11010431E+01 0.37540134E-01-0.22141599E-04 0.00000000E+00 0.00000000E+00    2
 0.21205971E+05 0.21169075E+02 0.11010431E+01 0.37540134E-01-0.22141599E-04    3
 0.00000000E+00 0.00000000E+00 0.21205971E+05 0.21169075E+02                   4
_2-C4H8                 C   4H   8O   0     G      300.     5000.   1000.      1
 0.68236494E+00 0.37494846E-01-0.18115899E-04 0.00000000E+00 0.00000000E+00    2
-0.33302896E+04 0.21476873E+02 0.68236494E+00 0.37494846E-01-0.18115899E-04    3
 0.00000000E+00 0.00000000E+00-0.33302896E+04 0.21476873E+02                   4
_2C4-1.                 C   4H   7O   0     G      300.     5000.   1000.      1
 0.21361645E+00 0.39412107E-01-0.23148101E-04 0.00000000E+00 0.00000000E+00    2
 0.13576223E+05 0.23759388E+02 0.21361645E+00 0.39412107E-01-0.23148101E-04    3
 0.00000000E+00 0.00000000E+00 0.13576223E+05 0.23759388E+02                   4
i-C4H8                  C   4H   8O   0     G      300.     5000.   1000.      1
 0.10255603E+01 0.38259737E-01-0.19625500E-04 0.00000000E+00 0.00000000E+00    2
-0.37451401E+04 0.18842216E+02 0.10255603E+01 0.38259737E-01-0.19625500E-04    3
 0.00000000E+00 0.00000000E+00-0.37451401E+04 0.18842216E+02                   4
iC4H7.                  C   4H   7O   0     G      300.     5000.   1000.      1
 0.43120834E+00 0.40811058E-01-0.25160900E-04 0.00000000E+00 0.00000000E+00    2
 0.13175084E+05 0.21874979E+02 0.43120834E+00 0.40811058E-01-0.25160900E-04    3
 0.00000000E+00 0.00000000E+00 0.13175084E+05 0.21874979E+02                   4
i-C4H10                 C   4H  10O   0     G      300.     5000.   1000.      1
-0.11206686E+01 0.50241381E-01-0.27677001E-04 0.00000000E+00 0.00000000E+00    2
-0.18009039E+05 0.28077515E+02-0.11206686E+01 0.50241381E-01-0.27677001E-04    3
 0.00000000E+00 0.00000000E+00-0.18009039E+05 0.28077515E+02                   4
iC4H9.                  C   4H   9O   0     G      300.     5000.   1000.      1
-0.31093898E+00 0.47735352E-01-0.28683500E-04 0.00000000E+00 0.00000000E+00    2
 0.50279526E+04 0.26847486E+02-0.31093898E+00 0.47735352E-01-0.28683500E-04    3
 0.00000000E+00 0.00000000E+00 0.50279526E+04 0.26847486E+02                   4
tC4H9.                  C   4H   9O   0     G      300.     5000.   1000.      1
 0.96718687E+00 0.40599708E-01-0.20632000E-04 0.00000000E+00 0.00000000E+00    2
 0.19943627E+04 0.19457863E+02 0.96718687E+00 0.40599708E-01-0.20632000E-04    3
 0.00000000E+00 0.00000000E+00 0.19943627E+04 0.19457863E+02                   4
n-C4H10                 C   4H  10O   0     G      300.     5000.   1000.      1
-0.42602518E+00 0.47614578E-01-0.25160900E-04 0.00000000E+00 0.00000000E+00    2
-0.16994412E+05 0.26547300E+02-0.42602518E+00 0.47614578E-01-0.25160900E-04    3
 0.00000000E+00 0.00000000E+00-0.16994412E+05 0.26547300E+02                   4
_1C4H9.                 C   4H   9O   0     G      300.     5000.   1000.      1
 0.38375479E+00 0.45108549E-01-0.26167399E-04 0.00000000E+00 0.00000000E+00    2
 0.64350752E+04 0.24219967E+02 0.38375479E+00 0.45108549E-01-0.26167399E-04    3
 0.00000000E+00 0.00000000E+00 0.64350752E+04 0.24219967E+02                   4
_2C4H9.                 C   4H   9O   0     G      300.     5000.   1000.      1
 0.95007741E+00 0.42119429E-01-0.23148101E-04 0.00000000E+00 0.00000000E+00    2
 0.46010776E+04 0.22807056E+02 0.95007741E+00 0.42119429E-01-0.23148101E-04    3
 0.00000000E+00 0.00000000E+00 0.46010776E+04 0.22807056E+02                   4
_1-C5H10                C   5H  10O   0     G      300.     5000.   1000.      1
-0.70048082E+00 0.54750223E-01-0.31199601E-04 0.00000000E+00 0.00000000E+00    2
-0.44852090E+04 0.30549433E+02-0.70048082E+00 0.54750223E-01-0.31199601E-04    3
 0.00000000E+00 0.00000000E+00-0.44852090E+04 0.30549433E+02                   4
_2-C5H10                C   5H  10O   0     G      300.     5000.   1000.      1
-0.30912742E+00 0.52183807E-01-0.28180300E-04 0.00000000E+00 0.00000000E+00    2
-0.59939604E+04 0.28527933E+02-0.30912742E+00 0.52183807E-01-0.28180300E-04    3
 0.00000000E+00 0.00000000E+00-0.59939604E+04 0.28527933E+02                   4
_2m-1-C4H8              C   5H  10O   0     G      300.     5000.   1000.      1
 0.34032699E-01 0.52938636E-01-0.29689900E-04 0.00000000E+00 0.00000000E+00    2
-0.64083530E+04 0.26590919E+02 0.34032699E-01 0.52938636E-01-0.29689900E-04    3
 0.00000000E+00 0.00000000E+00-0.64083530E+04 0.26590919E+02                   4
_3m-1-C4H8              C   5H  10O   0     G      300.     5000.   1000.      1
-0.14784573E+01 0.57819858E-01-0.34722099E-04 0.00000000E+00 0.00000000E+00    2
-0.53599766E+04 0.32869724E+02-0.14784573E+01 0.57819858E-01-0.34722099E-04    3
 0.00000000E+00 0.00000000E+00-0.53599766E+04 0.32869724E+02                   4
C6di                    C   6H  10O   0     G      300.     5000.   1000.      1
-0.97473514E+00 0.61845612E-01-0.37238198E-04 0.00000000E+00 0.00000000E+00    2
 0.80257236E+04 0.33747204E+02-0.97473514E+00 0.61845612E-01-0.37238198E-04    3
 0.00000000E+00 0.00000000E+00 0.80257236E+04 0.33747204E+02                   4
C6ol                    C   6H  12O   0     G      300.     5000.   1000.      1
-0.82880163E+00 0.66273935E-01-0.37741400E-04 0.00000000E+00 0.00000000E+00    2
-0.73822168E+04 0.32875843E+02-0.82880163E+00 0.66273935E-01-0.37741400E-04    3
 0.00000000E+00 0.00000000E+00-0.73822168E+04 0.32875843E+02                   4
iC6ol                   C   6H  12O   0     G      300.     5000.   1000.      1
 0.29679856E+00 0.61895933E-01-0.33212498E-04 0.00000000E+00 0.00000000E+00    2
-0.10008882E+05 0.27304958E+02 0.29679856E+00 0.61895933E-01-0.33212498E-04    3
 0.00000000E+00 0.00000000E+00-0.10008882E+05 0.27304958E+02                   4
C7di                    C   7H  12O   0     G      300.     5000.   1000.      1
-0.11030560E+01 0.73369324E-01-0.43780099E-04 0.00000000E+00 0.00000000E+00    2
 0.51287163E+04 0.36073616E+02-0.11030560E+01 0.73369324E-01-0.43780099E-04    3
 0.00000000E+00 0.00000000E+00 0.51287163E+04 0.36073616E+02                   4
iC7di                   C   7H  12O   0     G      300.     5000.   1000.      1
-0.36885950E+00 0.71608059E-01-0.42270400E-04 0.00000000E+00 0.00000000E+00    2
 0.36060051E+04 0.32106937E+02-0.36885950E+00 0.71608059E-01-0.42270400E-04    3
 0.00000000E+00 0.00000000E+00 0.36060051E+04 0.32106937E+02                   4
C7ol                    C   7H  14O   0     G      300.     5000.   1000.      1
-0.95762569E+00 0.77747330E-01-0.44283301E-04 0.00000000E+00 0.00000000E+00    2
-0.10276838E+05 0.35220127E+02-0.95762569E+00 0.77747330E-01-0.44283301E-04    3
 0.00000000E+00 0.00000000E+00-0.10276838E+05 0.35220127E+02                   4
iC7ol                   C   7H  14O   0     G      300.     5000.   1000.      1
-0.22302665E+00 0.75986065E-01-0.42773601E-04 0.00000000E+00 0.00000000E+00    2
-0.12202244E+05 0.31246120E+02-0.22302665E+00 0.75986065E-01-0.42773601E-04    3
 0.00000000E+00 0.00000000E+00-0.12202244E+05 0.31246120E+02                   4
C8di                    C   8H  14O   0     G      300.     5000.   1000.      1
-0.12318801E+01 0.84893040E-01-0.50321902E-04 0.00000000E+00 0.00000000E+00    2
 0.22318584E+04 0.38402897E+02-0.12318801E+01 0.84893040E-01-0.50321902E-04    3
 0.00000000E+00 0.00000000E+00 0.22318584E+04 0.38402897E+02                   4
iC8di                   C   8H  14O   0     G      300.     5000.   1000.      1
-0.49733129E+00 0.83081454E-01-0.48812199E-04 0.00000000E+00 0.00000000E+00    2
 0.71127911E+03 0.34449215E+02-0.49733129E+00 0.83081454E-01-0.48812199E-04    3
 0.00000000E+00 0.00000000E+00 0.71127911E+03 0.34449215E+02                   4
_1C5ol-5.               C   5H   9O   0     G      300.     5000.   1000.      1
 0.10939980E+00 0.52234128E-01-0.32206000E-04 0.00000000E+00 0.00000000E+00    2
 0.19196305E+05 0.27816919E+02 0.10939980E+00 0.52234128E-01-0.32206000E-04    3
 0.00000000E+00 0.00000000E+00 0.19196305E+05 0.27816919E+02                   4
_1C5ol-4.               C   5H   9O   0     G      300.     5000.   1000.      1
 0.15388436E+01 0.46059631E-01-0.25664200E-04 0.00000000E+00 0.00000000E+00    2
 0.17129881E+05 0.22088224E+02 0.15388436E+01 0.46059631E-01-0.25664200E-04    3
 0.00000000E+00 0.00000000E+00 0.17129881E+05 0.22088224E+02                   4
_1C5ol-3.               C   5H   9O   0     G      300.     5000.   1000.      1
-0.21296227E+00 0.53139921E-01-0.32709198E-04 0.00000000E+00 0.00000000E+00    2
 0.11325873E+05 0.28399473E+02-0.21296227E+00 0.53139921E-01-0.32709198E-04    3
 0.00000000E+00 0.00000000E+00 0.11325873E+05 0.28399473E+02                   4
_2C5ol-5.               C   5H   9O   0     G      300.     5000.   1000.      1
 0.13637234E+01 0.46502464E-01-0.25664200E-04 0.00000000E+00 0.00000000E+00    2
 0.17051703E+05 0.21479527E+02 0.13637234E+01 0.46502464E-01-0.25664200E-04    3
 0.00000000E+00 0.00000000E+00 0.17051703E+05 0.21479527E+02                   4
_2C5ol-4.               C   5H   9O   0     G      300.     5000.   1000.      1
 0.32326788E+00 0.49456362E-01-0.28180300E-04 0.00000000E+00 0.00000000E+00    2
 0.94781191E+04 0.25823536E+02 0.32326788E+00 0.49456362E-01-0.28180300E-04    3
 0.00000000E+00 0.00000000E+00 0.94781191E+04 0.25823536E+02                   4
_3m1C4-4.               C   5H   9O   0     G      300.     5000.   1000.      1
 0.27762589E+00 0.51680587E-01-0.31702799E-04 0.00000000E+00 0.00000000E+00    2
 0.17561037E+05 0.26155699E+02 0.27762589E+00 0.51680587E-01-0.31702799E-04    3
 0.00000000E+00 0.00000000E+00 0.17561037E+05 0.26155699E+02                   4
_3m1C4-3.               C   5H   9O   0     G      300.     5000.   1000.      1
 0.10552502E+01 0.46713818E-01-0.25664200E-04 0.00000000E+00 0.00000000E+00    2
 0.78951797E+04 0.20718359E+02 0.10552502E+01 0.46713818E-01-0.25664200E-04    3
 0.00000000E+00 0.00000000E+00 0.78951797E+04 0.20718359E+02                   4
_2m-2-C4H8              C   5H  10O   0     G      300.     5000.   1000.      1
 0.12882406E+01 0.47217038E-01-0.23148101E-04 0.00000000E+00 0.00000000E+00    2
-0.81507939E+04 0.20251184E+02 0.12882406E+01 0.47217038E-01-0.23148101E-04    3
 0.00000000E+00 0.00000000E+00-0.81507939E+04 0.20251184E+02                   4
_2m1C4-4.               C   5H   9O   0     G      300.     5000.   1000.      1
 0.17069187E+01 0.47262326E-01-0.27173801E-04 0.00000000E+00 0.00000000E+00    2
 0.16788041E+05 0.18846369E+02 0.17069187E+01 0.47262326E-01-0.27173801E-04    3
 0.00000000E+00 0.00000000E+00 0.16788041E+05 0.18846369E+02                   4
_2m1C4-3.               C   5H   9O   0     G      300.     5000.   1000.      1
 0.21477385E+01 0.44907261E-01-0.24657700E-04 0.00000000E+00 0.00000000E+00    2
 0.14977791E+05 0.18183132E+02 0.21477385E+01 0.44907261E-01-0.24657700E-04    3
 0.00000000E+00 0.00000000E+00 0.14977791E+05 0.18183132E+02                   4
cyC5ol                  C   5H   8O   0     G      300.     5000.   1000.      1
-0.52687025E+01 0.57065032E-01-0.32709198E-04 0.00000000E+00 0.00000000E+00    2
 0.36662610E+04 0.49372154E+02-0.52687025E+01 0.57065032E-01-0.32709198E-04    3
 0.00000000E+00 0.00000000E+00 0.36662610E+04 0.49372154E+02                   4
cC5ol-3.                C   5H   7O   0     G      300.     5000.   1000.      1
-0.42854128E+01 0.52938636E-01-0.30696399E-04 0.00000000E+00 0.00000000E+00    2
 0.18670510E+05 0.44709297E+02-0.42854128E+01 0.52938636E-01-0.30696399E-04    3
 0.00000000E+00 0.00000000E+00 0.18670510E+05 0.44709297E+02                   4
cC5ol-4.                C   5H   7O   0     G      300.     5000.   1000.      1
-0.26786346E+01 0.46970457E-01-0.25160900E-04 0.00000000E+00 0.00000000E+00    2
 0.24411213E+05 0.37570992E+02-0.26786346E+01 0.46970457E-01-0.25160900E-04    3
 0.00000000E+00 0.00000000E+00 0.24411213E+05 0.37570992E+02                   4
_1.3-C5di               C   5H   8O   0     G      300.     5000.   1000.      1
-0.62499797E+00 0.52536059E-01-0.34218901E-04 0.00000000E+00 0.00000000E+00    2
 0.73172129E+04 0.27662918E+02-0.62499797E+00 0.52536059E-01-0.34218901E-04    3
 0.00000000E+00 0.00000000E+00 0.73172129E+04 0.27662918E+02                   4
C5di-3.                 C   5H   7O   0     G      300.     5000.   1000.      1
 0.50422543E+00 0.45591637E-01-0.28683500E-04 0.00000000E+00 0.00000000E+00    2
 0.24696955E+05 0.23959303E+02 0.50422543E+00 0.45591637E-01-0.28683500E-04    3
 0.00000000E+00 0.00000000E+00 0.24696955E+05 0.23959303E+02                   4
_1.4-C5di               C   5H   8O   0     G      300.     5000.   1000.      1
-0.87308490E+00 0.50472863E-01-0.30696399E-04 0.00000000E+00 0.00000000E+00    2
 0.11074939E+05 0.31537807E+02-0.87308490E+00 0.50472863E-01-0.30696399E-04    3
 0.00000000E+00 0.00000000E+00 0.11074939E+05 0.31537807E+02                   4
xylene                  C   8H  10O   0     G      300.     5000.   1000.      1
-0.28497291E+01 0.72362885E-01-0.41264000E-04 0.00000000E+00 0.00000000E+00    2
-0.79801773E+02 0.38987469E+02-0.28497291E+01 0.72362885E-01-0.41264000E-04    3
 0.00000000E+00 0.00000000E+00-0.79801773E+02 0.38987469E+02                   4
toluene                 C   7H   8O   0     G      300.     5000.   1000.      1
-0.39749267E+01 0.66676512E-01-0.41264000E-04 0.00000000E+00 0.00000000E+00    2
 0.45291362E+04 0.43254223E+02-0.39749267E+01 0.66676512E-01-0.41264000E-04    3
 0.00000000E+00 0.00000000E+00 0.45291362E+04 0.43254223E+02                   4
etBenzene               C   8H  10O   0     G      300.     5000.   1000.      1
-0.46255889E+01 0.81773080E-01-0.52334799E-04 0.00000000E+00 0.00000000E+00    2
 0.17042993E+04 0.47652515E+02-0.46255889E+01 0.81773080E-01-0.52334799E-04    3
 0.00000000E+00 0.00000000E+00 0.17042993E+04 0.47652515E+02                   4
benzene                 C   6H   6O   0     G      300.     5000.   1000.      1
-0.51026402E+01 0.60990140E-01-0.40760700E-04 0.00000000E+00 0.00000000E+00    2
 0.91343779E+04 0.45027042E+02-0.51026402E+01 0.60990140E-01-0.40760700E-04    3
 0.00000000E+00 0.00000000E+00 0.91343779E+04 0.45027042E+02                   4
styrene                 C   8H   8O   0     G      300.     5000.   1000.      1
-0.36679630E+01 0.75482845E-01-0.50321902E-04 0.00000000E+00 0.00000000E+00    2
 0.15906581E+05 0.42125443E+02-0.36679630E+01 0.75482845E-01-0.50321902E-04    3
 0.00000000E+00 0.00000000E+00 0.15906581E+05 0.42125443E+02                   4
C9arool                 C   9H  10O   0     G      300.     5000.   1000.      1
-0.23575809E+01 0.83433703E-01-0.53844400E-04 0.00000000E+00 0.00000000E+00    2
 0.11459736E+05 0.36863693E+02-0.23575809E+01 0.83433703E-01-0.53844400E-04    3
 0.00000000E+00 0.00000000E+00 0.11459736E+05 0.36863693E+02                   4
C10arool                C  10H  12O   0     G      300.     5000.   1000.      1
-0.30082431E+01 0.98530270E-01-0.64915199E-04 0.00000000E+00 0.00000000E+00    2
 0.86348994E+04 0.41261986E+02-0.30082431E+01 0.98530270E-01-0.64915199E-04    3
 0.00000000E+00 0.00000000E+00 0.86348994E+04 0.41261986E+02                   4
C2H2                    C   2H   2O   0     G      300.     5000.   1000.      1
 0.25855391E+01 0.11558940E-01-0.85547199E-05 0.00000000E+00 0.00000000E+00    2
 0.25894314E+05 0.63671474E+01 0.25855391E+01 0.11558940E-01-0.85547199E-05    3
 0.00000000E+00 0.00000000E+00 0.25894314E+05 0.63671474E+01                   4
C3H4(MA)                C   3H   4O   0     G      300.     5000.   1000.      1
 0.19464509E+01 0.21567965E-01-0.13083700E-04 0.00000000E+00 0.00000000E+00    2
 0.20859164E+05 0.12891767E+02 0.19464509E+01 0.21567965E-01-0.13083700E-04    3
 0.00000000E+00 0.00000000E+00 0.20859164E+05 0.12891767E+02                   4
C3H4(PD)                C   3H   4O   0     G      300.     5000.   1000.      1
 0.11060753E+01 0.23973351E-01-0.14593400E-04 0.00000000E+00 0.00000000E+00    2
 0.22244002E+05 0.16622213E+02 0.11060753E+01 0.23973351E-01-0.14593400E-04    3
 0.00000000E+00 0.00000000E+00 0.22244002E+05 0.16622213E+02                   4
iC5-1.                  C   5H  11O   0     G      300.     5000.   1000.      1
-0.43946111E+00 0.59228871E-01-0.35728499E-04 0.00000000E+00 0.00000000E+00    2
 0.25393677E+04 0.29900854E+02-0.43946111E+00 0.59228871E-01-0.35728499E-04    3
 0.00000000E+00 0.00000000E+00 0.25393677E+04 0.29900854E+02                   4
iC5-2.                  C   5H  11O   0     G      300.     5000.   1000.      1
 0.69343573E+00 0.53240567E-01-0.29186700E-04 0.00000000E+00 0.00000000E+00    2
-0.55903113E+03 0.24160727E+02 0.69343573E+00 0.53240567E-01-0.29186700E-04    3
 0.00000000E+00 0.00000000E+00-0.55903113E+03 0.24160727E+02                   4
iC5-3.                  C   5H  11O   0     G      300.     5000.   1000.      1
 0.12706278E+00 0.56259882E-01-0.32206000E-04 0.00000000E+00 0.00000000E+00    2
 0.69996973E+03 0.27074577E+02 0.12706278E+00 0.56259882E-01-0.32206000E-04    3
 0.00000000E+00 0.00000000E+00 0.69996973E+03 0.27074577E+02                   4
iC5-4.                  C   5H  11O   0     G      300.     5000.   1000.      1
-0.43946111E+00 0.59228871E-01-0.35728499E-04 0.00000000E+00 0.00000000E+00    2
 0.25293032E+04 0.28517002E+02-0.43946111E+00 0.59228871E-01-0.35728499E-04    3
 0.00000000E+00 0.00000000E+00 0.25293032E+04 0.28517002E+02                   4
nC5-1.                  C   5H  11O   0     G      300.     5000.   1000.      1
 0.25523266E+00 0.56612134E-01-0.32709198E-04 0.00000000E+00 0.00000000E+00    2
 0.39415972E+04 0.26553526E+02 0.25523266E+00 0.56612134E-01-0.32709198E-04    3
 0.00000000E+00 0.00000000E+00 0.39415972E+04 0.26553526E+02                   4
nC5-2.                  C   5H  11O   0     G      300.     5000.   1000.      1
 0.82175654E+00 0.53643141E-01-0.29689900E-04 0.00000000E+00 0.00000000E+00    2
 0.21066450E+04 0.25133469E+02 0.82175654E+00 0.53643141E-01-0.29689900E-04    3
 0.00000000E+00 0.00000000E+00 0.21066450E+04 0.25133469E+02                   4
nC5-3.                  C   5H  11O   0     G      300.     5000.   1000.      1
 0.67682952E+00 0.54800544E-01-0.31199601E-04 0.00000000E+00 0.00000000E+00    2
 0.20412986E+04 0.24297371E+02 0.67682952E+00 0.54800544E-01-0.31199601E-04    3
 0.00000000E+00 0.00000000E+00 0.20412986E+04 0.24297371E+02                   4
isoprene                C   5H   8O   0     G      300.     5000.   1000.      1
-0.28205422E+00 0.53290889E-01-0.35728499E-04 0.00000000E+00 0.00000000E+00    2
 0.70790112E+04 0.25163532E+02-0.28205422E+00 0.53290889E-01-0.35728499E-04    3
 0.00000000E+00 0.00000000E+00 0.70790112E+04 0.25163532E+02                   4
CPD                     C   5H   6O   0     G      300.     5000.   1000.      1
-0.35733578E+01 0.48127864E-01-0.27677001E-04 0.00000000E+00 0.00000000E+00    2
 0.17321893E+05 0.41811527E+02-0.35733578E+01 0.48127864E-01-0.27677001E-04    3
 0.00000000E+00 0.00000000E+00 0.17321893E+05 0.41811527E+02                   4
cyC5.                   C   5H   9O   0     G      300.     5000.   1000.      1
-0.53039279E+01 0.63153982E-01-0.38747901E-04 0.00000000E+00 0.00000000E+00    2
 0.11188921E+05 0.50521797E+02-0.53039279E+01 0.63153982E-01-0.38747901E-04    3
 0.00000000E+00 0.00000000E+00 0.11188921E+05 0.50521797E+02                   4
_1C6ol-4.               C   6H  11O   0     G      300.     5000.   1000.      1
 0.21447191E+01 0.55806983E-01-0.30696399E-04 0.00000000E+00 0.00000000E+00    2
 0.12308258E+05 0.19758017E+02 0.21447191E+01 0.55806983E-01-0.30696399E-04    3
 0.00000000E+00 0.00000000E+00 0.12308258E+05 0.19758017E+02                   4
nC6-3.                  C   6H  13O   0     G      300.     5000.   1000.      1
 0.56511492E+00 0.64764284E-01-0.35728499E-04 0.00000000E+00 0.00000000E+00    2
-0.30534636E+04 0.26487137E+02 0.56511492E+00 0.64764284E-01-0.35728499E-04    3
 0.00000000E+00 0.00000000E+00-0.30534636E+04 0.26487137E+02                   4
_3et1C4ol               C   6H  11O   0     G      300.     5000.   1000.      1
 0.71507412E+00 0.61946254E-01-0.37238198E-04 0.00000000E+00 0.00000000E+00    2
 0.14376309E+05 0.25498360E+02 0.71507412E+00 0.61946254E-01-0.37238198E-04    3
 0.00000000E+00 0.00000000E+00 0.14376309E+05 0.25498360E+02                   4
_4etC5ol5               C   7H  13O   0     G      300.     5000.   1000.      1
 0.58675331E+00 0.73469967E-01-0.43780099E-04 0.00000000E+00 0.00000000E+00    2
 0.11881876E+05 0.27824772E+02 0.58675331E+00 0.73469967E-01-0.43780099E-04    3
 0.00000000E+00 0.00000000E+00 0.11881876E+05 0.27824772E+02                   4
_1C7ol5.                C   7H  13O   0     G      300.     5000.   1000.      1
 0.11533779E+01 0.70500977E-01-0.40760700E-04 0.00000000E+00 0.00000000E+00    2
 0.10046894E+05 0.26404139E+02 0.11533779E+01 0.70500977E-01-0.40760700E-04    3
 0.00000000E+00 0.00000000E+00 0.10046894E+05 0.26404139E+02                   4
_3m1c5ol4               C   6H  11O   0     G      300.     5000.   1000.      1
 0.21447191E+01 0.55806983E-01-0.30696399E-04 0.00000000E+00 0.00000000E+00    2
 0.12308258E+05 0.19758017E+02 0.21447191E+01 0.55806983E-01-0.30696399E-04    3
 0.00000000E+00 0.00000000E+00 0.12308258E+05 0.19758017E+02                   4
iC6di-1                 C   6H  10O   0     G      300.     5000.   1000.      1
-0.26730990E+00 0.60184989E-01-0.35728499E-04 0.00000000E+00 0.00000000E+00    2
 0.62549121E+04 0.29913116E+02-0.26730990E+00 0.60184989E-01-0.35728499E-04    3
 0.00000000E+00 0.00000000E+00 0.62549121E+04 0.29913116E+02                   4
_3mC5-2.                C   6H  13O   0     G      300.     5000.   1000.      1
 0.56511492E+00 0.64764284E-01-0.35728499E-04 0.00000000E+00 0.00000000E+00    2
-0.30534636E+04 0.26487137E+02 0.56511492E+00 0.64764284E-01-0.35728499E-04    3
 0.00000000E+00 0.00000000E+00-0.30534636E+04 0.26487137E+02                   4
_4mC6ol5.               C   7H  13O   0     G      300.     5000.   1000.      1
 0.11533779E+01 0.70500977E-01-0.40760700E-04 0.00000000E+00 0.00000000E+00    2
 0.10046894E+05 0.26404139E+02 0.11533779E+01 0.70500977E-01-0.40760700E-04    3
 0.00000000E+00 0.00000000E+00 0.10046894E+05 0.26404139E+02                   4
_33m1C4ol               C   6H  11O   0     G      300.     5000.   1000.      1