ELEMENTS
H   C   O   N   NE   AR   HE   SI   S
END
SPECIES
pinanol(1)
ISOLINALOOL
LINALOOL
CH4(5)
BIRAD1
BIRAD2
TERPINEOL
PLINOL
ISOPLINOL
DMO
END
THERMO ALL
   300.000  1000.000  5000.000

pinanol(1)              C  10H  18O   1     G   300.000  5000.000   995.043    1
 3.03453150E+01 4.88078295E-02-1.78973436E-05 2.94130534E-09-1.78552035E-13    2
-6.18337049E+04-1.61971373E+02 2.08852121E+00 4.91035563E-02 1.52445303E-04    3
-2.25612416E-07 8.59936030E-11-5.06016576E+04 2.39412820E+00                   4

ISOLINALOOL             C  10H  18O   1     G   300.000  5000.000   995.043    1
 2.65393703E+01 4.68534002E-02-1.63337241E-05 2.61522549E-09-1.56444946E-13    2
-3.78543454E+04-1.03948548E+02 2.10831275E+00 8.74101299E-02 9.44048147E-06    3
-7.28834256E-08 3.34423355E-11-3.01381479E+04 2.81379077E+01                   4

LINALOOL                C  10H  18O   1     G   300.000  5000.000   995.043    1
 2.65393703E+01 4.68534002E-02-1.63337241E-05 2.61522549E-09-1.56444946E-13    2
-3.78543454E+04-1.03948548E+02 2.10831275E+00 8.74101299E-02 9.44048147E-06    3
-7.28834256E-08 3.34423355E-11-3.01381479E+04 2.81379077E+01                   4

CH4(5)                  C   1H   4          G   300.000  5000.000   995.043    1
 1.20933782E+00 1.07635862E-02-3.69789759E-06 5.80285027E-10-3.41693862E-14    2
-9.79206547E+03 1.24619300E+01 3.63765769E+00-2.58941555E-03 2.18452253E-05    3
-2.01605036E-08 6.08817863E-12-1.00975312E+04 1.65214016E+00                   4

BIRAD1                  C  10H  18O   1     G   300.000  5000.000   995.043    1
 2.22360663E+01 5.65044027E-02-2.12627089E-05 3.56047824E-09-2.19080702E-13    2
-1.54996463E+04-8.83018312E+01 3.10914830E+00 5.78616540E-02 9.05530733E-05    3
-1.47640783E-07 5.69360740E-11-7.95399706E+03 2.26687268E+01                   4

BIRAD2                  C  10H  18O   1     G   300.000  5000.000   995.043    1
 2.03001893E+01 5.88053838E-02-2.20273178E-05 3.67489477E-09-2.25570995E-13    2
-1.47554692E+04-7.70762392E+01 3.20911776E+00 5.94046376E-02 7.97366949E-05    3
-1.33291669E-07 5.14688057E-11-7.98259659E+03 2.22353675E+01                   4

TERPINEOL               C  10H  18O   1     G   300.000  5000.000   995.043    1
 2.64938850E+01 5.13297595E-02-1.86725237E-05 3.05741702E-09-1.85288699E-13    2
-4.82294415E+04-1.17974858E+02 2.35794780E+00 5.42275552E-02 1.18852916E-04    3
-1.84150098E-07 7.07349392E-11-3.87663823E+04 2.17622219E+01                   4

PLINOL                  C  10H  18O   1     G   300.000  5000.000   995.043    1
 2.63386484E+01 4.75303198E-02-1.59524035E-05 2.47257001E-09-1.44281155E-13    2
-4.59566226E+04-1.11941404E+02 1.67584558E+00 5.61894046E-02 1.07395832E-04    3
-1.71556670E-07 6.65404520E-11-3.65690774E+04 2.94285628E+01                   4

ISOPLINOL               C  10H  18O   1     G   300.000  5000.000   995.043    1
 2.63386484E+01 4.75303198E-02-1.59524035E-05 2.47257001E-09-1.44281155E-13    2
-4.59566226E+04-1.11941404E+02 1.67584558E+00 5.61894046E-02 1.07395832E-04    3
-1.71556670E-07 6.65404520E-11-3.65690774E+04 2.94285628E+01                   4

DMO                     C  10H  18O   1     G   300.000  5000.000   995.043    1
 2.36730379E+01 5.10104952E-02-1.85367354E-05 3.05069425E-09-1.85895058E-13    2
-4.37942441E+04-8.84428512E+01 2.71614450E+00 8.42625207E-02 8.20755889E-06    3
-6.63701840E-08 3.01955630E-11-3.70992003E+04 2.52429952E+01                   4
END

REACTIONS	KJOULES/MOLE	MOLES
pinanol(1)<=>BIRAD1 1E14 0.000 200.0
pinanol(1)<=>BIRAD2 1E14 0.000 200.0
BIRAD1<=>LINALOOL 1E14 0.000 200.0
LINALOOL<=>PLINOL 3.63E+07 0.000 113.4
ISOLINALOOL<=>ISOPLINOL 3.63E+07 0.000 113.4
ISOPLINOL<=>DMO 3.63E+07 0.000 113.4
BIRAD1<=>TERPINEOL 1E11 0.000 180.0
BIRAD2<=>ISOLINALOOL 1E14 0.000 240.0
END
