ELEMENTS
H   O
END
SPECIES
H2
O2
H2O
H2O2
END
THERMO ALL
   200.000  1000.000  6000.000
!all four compounds TD from Burcat
H2 REF ELEMENT    tpis78H  2.   0.   0.   0.G   200.000  6000.000 1000.        1
 2.93286575E+00 8.26608026E-04-1.46402364E-07 1.54100414E-11-6.88804800E-16    2
-8.13065581E+02-1.02432865E+00 2.34433112E+00 7.98052075E-03-1.94781510E-05    3
 2.01572094E-08-7.37611761E-12-9.17935173E+02 6.83010238E-01 0.00000000E+00    4
O2 REF ELEMENT    RUS 89O   2    0    0    0G   200.000  6000.000 1000.        1  
 3.66096065E+00 6.56365811E-04-1.41149627E-07 2.05797935E-11-1.29913436E-15    2
-1.21597718E+03 3.41536279E+00 3.78245636E+00-2.99673416E-03 9.84730201E-06    3
-9.68129509E-09 3.24372837E-12-1.06394356E+03 3.65767573E+00 0.00000000E+00    4
H2O               L 5/89H   2O   1    0    0G   200.000  6000.000 1000.        1  
 0.26770389E+01 0.29731816E-02-0.77376889E-06 0.94433514E-10-0.42689991E-14    2
-0.29885894E+05 0.68825500E+01 0.41986352E+01-0.20364017E-02 0.65203416E-05    3
-0.54879269E-08 0.17719680E-11-0.30293726E+05-0.84900901E+00-0.29084817E+05    4
!H2O2 copied from H2O, do not use in reality!
H2O2              L 5/89H   2O   2    0    0G   200.000  6000.000 1000.        1  
 0.26770389E+01 0.29731816E-02-0.77376889E-06 0.94433514E-10-0.42689991E-14    2
-0.29885894E+05 0.68825500E+01 0.41986352E+01-0.20364017E-02 0.65203416E-05    3
-0.54879269E-08 0.17719680E-11-0.30293726E+05-0.84900901E+00-0.29084817E+05    4
END
REACTIONS	KJOULES/MOLE	MOLES
2H2+O2=>2H2O 1.0E15 0.0 49.3872897237607
2H2O+O2=>2H2O2 1.0E13 0.0 80.2440756998782
!fictional rates, do not re-use
END
